http://zhulj.net/others/2016/04/13/Automatic-Documentation-Publishing-with-GitHub-and-TravisCI.html
http://zhulj.net/swat/2016/04/12/QSWAT-manual.html
http://zhulj.net/python/2016/04/11/Constructing-SURF_CLI_CHN_MUL_DAY_V3.0-database.html
http://zhulj.net/swat/2016/03/27/update-swat-database-from-swatcup.html
http://zhulj.net/python/2016/03/18/Python-Env-For-GISer.html
http://zhulj.net/others/2016/03/17/Github-jekyll-blog.html
http://zhulj.net/research/2013/07/26/Transformation-of-big-rotation-angles-3d-coordinate.html
http://zhulj.net/efficiency/2011/11/13/Get-Geographic-Coordinates-of-Given-Place-based-on-BaiduMap-API.html